Version 4
SHEET 1 880 680

WIRE 64 80 16 80
WIRE 160 80 112 80
WIRE 256 80 208 80
WIRE 352 80 304 80
WIRE 448 80 400 80

WIRE 64 160 64 80
WIRE 160 160 160 80
WIRE 256 160 256 80
WIRE 352 160 352 80
WIRE 448 160 448 80

FLAG 16 80 IN
FLAG 112 80 OUT1
FLAG 208 80 OUT2
FLAG 304 80 OUT3
FLAG 400 80 OUT4
FLAG 64 160 0
FLAG 160 160 0
FLAG 256 160 0
FLAG 352 160 0
FLAG 448 160 0

SYMBOL voltage 16 64 R0
SYMATTR InstName Vin
SYMATTR Value PULSE(0 5 0 1u 1u 5u 10u)

SYMBOL voltage 64 144 R0
SYMATTR InstName Vdd
SYMATTR Value 5

SYMBOL nmos 96 48 R0
SYMATTR InstName M2
SYMATTR Value NMOS

SYMBOL pmos 96 0 R0
SYMATTR InstName M1
SYMATTR Value PMOS

SYMBOL bv 192 64 R0
SYMATTR InstName B1
SYMATTR Value V=if(V(OUT1)>2.5,10,-10)

SYMBOL res 240 96 R0
SYMATTR InstName Rload1
SYMATTR Value 200

SYMBOL res 288 64 R0
SYMATTR InstName R1
SYMATTR Value 6.7k

SYMBOL res 288 112 R0
SYMATTR InstName R2
SYMATTR Value 3.3k

SYMBOL e 336 64 R0
SYMATTR InstName Ebuf
SYMATTR Value 1

SYMBOL res 384 96 R0
SYMATTR InstName Rload2
SYMATTR Value 110

TEXT 16 200 Left 2 !.tran 50u
